21
Energy:  -4.70167177
 Ni     -0.000003     -0.000121      0.000040
  H     -0.770480      2.166738      1.827595
  C     -0.407044      1.144482      1.830829
  H     -2.298940     -0.063179      1.827493
  C     -1.214414     -0.033433      1.830800
  H     -0.650459     -2.205939      1.827392
  C     -0.343646     -1.165285      1.830689
  H      1.896785     -1.300293      1.827359
  C      1.001898     -0.686889      1.830656
  H      1.822623      1.402164      1.827470
  C      0.962708      0.740628      1.830744
  H     -0.650291     -2.205705     -1.827545
  C     -0.343476     -1.165061     -1.830670
  H      1.896964     -1.300107     -1.827836
  C      1.002079     -0.686697     -1.830886
  H      1.822819      1.402365     -1.827674
  C      0.962921      0.740805     -1.830825
  H     -0.770254      2.166953     -1.827314
  C     -0.406806      1.144707     -1.830585
  C     -1.214228     -0.033190     -1.830484
  H     -2.298756     -0.062941     -1.827245
